 This run of the CFX 2020 R1 Solver started at 22:20:25 on 28 Jun 2020
 by user Muphy on LAPTOP-H6QTN7OP (intel_xeon64.sse2_winnt) using the
 command:
 
  "D:\ANSYS FULL\ANSYS Inc\v201\CFX\bin\perllib\cfx5solve.pl" -batch -ccl
    runInput.ccl -fullname smoke_2_001
 
 2020 R1
 
  Point Releases and Patches installed:
  ANSYS, Inc. Products 2020 R1
  SpaceClaim 2020 R1
  AIM 2020 R1
  Live (includes SpaceClaim) 2020 R1
  Autodyn 2020 R1
  LS-DYNA 2020 R1
  CFX (includes CFD-Post) 2020 R1
  Chemkin 2020 R1
  EnSight 2020 R1
  FENSAP-ICE 2020 R1
  Fluent (includes CFD-Post) 2020 R1
  Forte 2020 R1
  Polyflow (includes CFD-Post) 2020 R1
  TurboGrid 2020 R1
  ICEM CFD 2020 R1
  Aqwa 2020 R1
  Mechanical Products 2020 R1
  Additive 2020 R1
  ANSYS Sherlock 2020 R1
  Icepak (includes CFD-Post) 2020 R1
  ACIS Geometry Interface 2020 R1
  AutoCAD Geometry Interface 2020 R1
  Catia, Version 4 Geometry Interface 2020 R1
  Catia, Version 5 Geometry Interface 2020 R1
  Catia, Version 6 Geometry Interface 2020 R1
  Creo Elements/Direct Modeling Geometry Interface 2020 R1
  Creo Parametric Geometry Interface 2020 R1
  Inventor Geometry Interface 2020 R1
  JTOpen Geometry Interface 2020 R1
  NX Geometry Interface 2020 R1
  Parasolid Geometry Interface  2020 R1
  Solid Edge Geometry Interface 2020 R1
  SOLIDWORKS Geometry Interface 2020 R1
  ANSYS, Inc. License Manager 2020 R1
 
 Setting up CFX Solver run ...
 
 
 +--------------------------------------------------------------------+
 |                                                                    |
 |                    CFX Command Language for Run                    |
 |                                                                    |
 +--------------------------------------------------------------------+
 
 LIBRARY:
   CEL:
     EXPRESSIONS:
       Concentration = 1[kg m^-3]
       odorControl = t/totalTime*Concentration
       personX = cos(t/60[s]*pi*2)*3
       personZ = sin(t/60[s]*pi*2)
       totalTime = 300[s]
     END
   END
   ADDITIONAL VARIABLE: odor
     Option = Definition
     Tensor Type = SCALAR
     Units = [kg m^-3 ]
     Variable Type = Volumetric
   END
   MATERIAL: Air at 25 C
     Material Description = Air at 25 C and 1 atm (dry)
     Material Group = Air Data, Constant Property Gases
     Option = Pure Substance
     Thermodynamic State = Gas
     PROPERTIES:
       Option = General Material
       EQUATION OF STATE:
         Density = 1.185 [kg m^-3]
         Molar Mass = 28.96 [kg kmol^-1]
         Option = Value
       END
       SPECIFIC HEAT CAPACITY:
         Option = Value
         Specific Heat Capacity = 1.0044E+03 [J kg^-1 K^-1]
         Specific Heat Type = Constant Pressure
       END
       REFERENCE STATE:
         Option = Specified Point
         Reference Pressure = 1 [atm]
         Reference Specific Enthalpy = 0. [J/kg]
         Reference Specific Entropy = 0. [J/kg/K]
         Reference Temperature = 25 [C]
       END
       DYNAMIC VISCOSITY:
         Dynamic Viscosity = 1.831E-05 [kg m^-1 s^-1]
         Option = Value
       END
       THERMAL CONDUCTIVITY:
         Option = Value
         Thermal Conductivity = 2.61E-02 [W m^-1 K^-1]
       END
       ABSORPTION COEFFICIENT:
         Absorption Coefficient = 0.01 [m^-1]
         Option = Value
       END
       SCATTERING COEFFICIENT:
         Option = Value
         Scattering Coefficient = 0.0 [m^-1]
       END
       REFRACTIVE INDEX:
         Option = Value
         Refractive Index = 1.0 [m m^-1]
       END
       THERMAL EXPANSIVITY:
         Option = Value
         Thermal Expansivity = 0.003356 [K^-1]
       END
     END
   END
 END
 FLOW: Flow Analysis 1
   SOLUTION UNITS:
     Angle Units = [rad]
     Length Units = [m]
     Mass Units = [kg]
     Solid Angle Units = [sr]
     Temperature Units = [K]
     Time Units = [s]
   END
   ANALYSIS TYPE:
     Option = Transient
     EXTERNAL SOLVER COUPLING:
       Option = None
     END
     INITIAL TIME:
       Option = Automatic with Value
       Time = 0 [s]
     END
     TIME DURATION:
       Option = Total Time
       Total Time = totalTime
     END
     TIME STEPS:
       Option = Timesteps
       Timesteps = 1 [s]
     END
   END
   DOMAIN: environment
     Coord Frame = Coord 0
     Domain Type = Fluid
     Location = B20
     BOUNDARY: room
       Boundary Type = WALL
       Location = F21.20,F22.20,F23.20,F24.20,F25.20,F26.20,F27.20
       BOUNDARY CONDITIONS:
         ADDITIONAL VARIABLE: odor
           Option = Zero Flux
         END
         MASS AND MOMENTUM:
           Option = No Slip Wall
         END
         WALL ROUGHNESS:
           Option = Smooth Wall
         END
       END
     END
     BOUNDARY: vent
       Boundary Type = INLET
       Location = vent
       BOUNDARY CONDITIONS:
         ADDITIONAL VARIABLE: odor
           Additional Variable Value = odorControl
           Option = Value
         END
         FLOW REGIME:
           Option = Subsonic
         END
         MASS AND MOMENTUM:
           Normal Speed = 1 [m s^-1]
           Option = Normal Speed
         END
         TURBULENCE:
           Eddy Viscosity Ratio = 10.
           Fractional Intensity = 0.05
           Option = Intensity and Eddy Viscosity Ratio
         END
       END
     END
     DOMAIN MODELS:
       BUOYANCY MODEL:
         Option = Non Buoyant
       END
       DOMAIN MOTION:
         Option = Stationary
       END
       MESH DEFORMATION:
         Option = None
       END
       REFERENCE PRESSURE:
         Reference Pressure = 0 [atm]
       END
     END
     FLUID DEFINITION: Fluid 1
       Material = Air at 25 C
       Option = Material Library
       MORPHOLOGY:
         Option = Continuous Fluid
       END
     END
     FLUID MODELS:
       ADDITIONAL VARIABLE: odor
         Kinematic Diffusivity = 1e-4 [m^2 s^-1]
         Option = Transport Equation
       END
       COMBUSTION MODEL:
         Option = None
       END
       HEAT TRANSFER MODEL:
         Option = None
       END
       THERMAL RADIATION MODEL:
         Option = None
       END
       TURBULENCE MODEL:
         Option = k epsilon
       END
       TURBULENT WALL FUNCTIONS:
         Option = Scalable
       END
     END
   END
   DOMAIN: person
     Coord Frame = Coord 0
     Domain Type = Immersed Solid
     Location = B40
     BOUNDARY: person Default
       Boundary Type = WALL
       Location = F41.40,F42.40,F43.40
     END
     DOMAIN MODELS:
       DOMAIN MOTION:
         Linear Velocity = 0.2 [m s^-1]
         Option = Speed and Direction
         TRANSLATION DIRECTION:
           Option = Cartesian Components
           Unit Vector X Component = personX
           Unit Vector Y Component = 0
           Unit Vector Z Component = personZ
         END
       END
     END
   END
   INITIALISATION:
     Option = Automatic
     INITIAL CONDITIONS:
       Velocity Type = Cartesian
       ADDITIONAL VARIABLE: odor
         Additional Variable Value = 0 [kg m^-3]
         Option = Automatic with Value
       END
       CARTESIAN VELOCITY COMPONENTS:
         Option = Automatic with Value
         U = 0 [m s^-1]
         V = 0 [m s^-1]
         W = 0 [m s^-1]
       END
       STATIC PRESSURE:
         Option = Automatic with Value
         Relative Pressure = 0 [Pa]
       END
       TURBULENCE INITIAL CONDITIONS:
         Option = Medium Intensity and Eddy Viscosity Ratio
       END
     END
   END
   OUTPUT CONTROL:
     RESULTS:
       File Compression Level = Default
       Option = Standard
     END
     TRANSIENT RESULTS: Transient Results 1
       File Compression Level = Default
       Include Mesh = No
       Option = Selected Variables
       Output Variables List = odor,Velocity,Pressure
       OUTPUT FREQUENCY:
         Option = Every Timestep
       END
     END
   END
   SOLVER CONTROL:
     Turbulence Numerics = First Order
     ADVECTION SCHEME:
       Option = High Resolution
     END
     CONVERGENCE CONTROL:
       Maximum Number of Coefficient Loops = 10
       Minimum Number of Coefficient Loops = 1
       Timescale Control = Coefficient Loops
     END
     CONVERGENCE CRITERIA:
       Residual Target = 1.E-4
       Residual Type = RMS
     END
     IMMERSED SOLID CONTROL:
       BOUNDARY MODEL:
         Option = None
       END
     END
     INTERRUPT CONTROL:
       Option = Any Interrupt
       CONVERGENCE CONDITIONS:
         Option = Default Conditions
       END
     END
     TRANSIENT SCHEME:
       Option = Second Order Backward Euler
       TIMESTEP INITIALISATION:
         Option = Automatic
       END
     END
   END
 END
 COMMAND FILE:
   Version = 20.1
   Results Version = 20.1
 END
 SIMULATION CONTROL:
   EXECUTION CONTROL:
     EXECUTABLE SELECTION:
       Double Precision = No
       Large Problem = No
     END
     INTERPOLATOR STEP CONTROL:
       Runtime Priority = Standard
       MEMORY CONTROL:
         Memory Allocation Factor = 1.0
       END
     END
     PARALLEL HOST LIBRARY:
       HOST DEFINITION: laptoph6qtn7op
         Remote Host Name = LAPTOP-H6QTN7OP
         Host Architecture String = winnt-amd64
         Installation Root = D:\ANSYS FULL\ANSYS Inc\v%v\CFX
       END
     END
     PARTITIONER STEP CONTROL:
       Multidomain Option = Automatic
       Runtime Priority = Standard
       MEMORY CONTROL:
         Memory Allocation Factor = 1.0
       END
       PARTITION SMOOTHING:
         Maximum Partition Smoothing Sweeps = 100
         Option = Smooth
       END
       PARTITIONING TYPE:
         MeTiS Type = k-way
         Option = MeTiS
         Partition Size Rule = Automatic
         Partition Weight Factors = 0.16667, 0.16667, 0.16667, 0.16667, \
           0.16667, 0.16667
       END
     END
     RUN DEFINITION:
       Run Mode = Full
       Solver Input File = smoke_2.def
       Solver Results File = \
         D:/workplace/projects/Ansys/Smoke/Smoke_in_room_pending/dp0_CFX_1_Sol\
         ution_1/smoke_2_001.res
     END
     SOLVER STEP CONTROL:
       Runtime Priority = Standard
       MEMORY CONTROL:
         Memory Allocation Factor = 1.0
       END
       PARALLEL ENVIRONMENT:
         Number of Processes = 6
         Start Method = Intel MPI Local Parallel
         Parallel Host List = laptoph6qtn7op*6
       END
     END
   END
 END
 
 
 +--------------------------------------------------------------------+
 |                                                                    |
 |                            Partitioning                            |
 |                                                                    |
 +--------------------------------------------------------------------+
 



 +--------------------------------------------------------------------+
 |                                                                    |
 |                     ANSYS(R) CFX(R) Partitioner                    |
 |                                                                    |
 | 2020 R1                                                            |
 | Build 20.1 2019-11-18T23:17:56.638000                              |
 | Tue Nov 19 00:59:43 GMTST 2019                                     |
 |                                                                    |
 |                        Executable Attributes                       |
 |                                                                    |
 |           single-64bit-int32-archfort-optimised-std-lcomp          |
 |                                                                    |
 | (C) 1996-2020 ANSYS, Inc.                                          |
 |                                                                    |
 | All rights reserved. Unauthorized use, distribution or duplication |
 | is prohibited. This product is subject to U.S. laws governing      |
 | export and re-export. For full Legal Notice, see documentation.    |
 +--------------------------------------------------------------------+




 +--------------------------------------------------------------------+
 |                  Job Information at Start of Run                   |
 +--------------------------------------------------------------------+

 Run mode:       partitioning run

 Host computer:  LAPTOP-H6QTN7OP (PID:1036)

 Job started:    Sun Jun 28 22:20:27 2020

 +--------------------------------------------------------------------+
 |                        License Information                         |
 +--------------------------------------------------------------------+
 
 License Cap:    ANSYS CFX Solver (Max 128K Nodes)
 License Cap:     Parallel
 License ID:     LAPTOP-H6QTN7OP-Muphy-30784-016108


 +--------------------------------------------------------------------+
 |        Memory Allocated for Run  (Actual usage may be less)        |
 +--------------------------------------------------------------------+

           | Real       | Integer    | Character | Logical  | Double
 ----------+------------+------------+-----------+----------+----------
 Mwords    |       1.04 |       1.88 |      7.35 |     0.12 |     0.40
 Mbytes    |       3.98 |       7.16 |      7.01 |     0.46 |     3.09
 ----------+------------+------------+-----------+----------+----------


 +--------------------------------------------------------------------+
 |                  Host Memory Information (Mbytes)                  |
 +--------------------------------------------------------------------+
 |          Host           |     System     |   Allocated    |   %    |
 +-------------------------+----------------+----------------+--------+
 | LAPTOP-H6QTN7OP         |     16263.30   |        21.70   |   0.13 |
 +-------------------------+----------------+----------------+--------+

 +--------------------------------------------------------------------+
 | The MeTiS partitioning method allocates additional memory.         |
 | Total memory usage will therefore exceed the values shown above.   |
 +--------------------------------------------------------------------+

 +--------------------------------------------------------------------+
 |                      Topology Simplification                       |
 +--------------------------------------------------------------------+

 +--------------------------------------------------------------------+
 |                       ****** Warning ******                        |
 |                                                                    |
 | Topology simplification is activated with the following            |
 | restrictions:                                                      |
 |                                                                    |
 | - Mesh regions referenced only within User Fortran and NOT         |
 |   in the command file will cause the solver to stop.               |
 | - The solver will stop during any "Edit Run in Progress" step      |
 |   if new 2D regions are referenced.                                |
 +--------------------------------------------------------------------+

 +--------------------------------------------------------------------+
 |                          Mesh Statistics                           |
 +--------------------------------------------------------------------+

 Domain Name : environment

     Total Number of Nodes                                =        6410

     Total Number of Elements                             =       33701
         Total Number of Tetrahedrons                     =       33701

     Total Number of Faces                                =        2930

 Domain Name : person

     Total Number of Nodes                                =        1617

     Total Number of Elements                             =        1340
         Total Number of Prisms                           =          40
         Total Number of Hexahedrons                      =        1300

     Total Number of Faces                                =         534
 
 Global Statistics :

     Global Number of Nodes                               =        8027

     Global Number of Elements                            =       35041
         Total Number of Tetrahedrons                     =       33701
         Total Number of Prisms                           =          40
         Total Number of Hexahedrons                      =        1300

     Global Number of Faces                               =        3464

 +--------------------------------------------------------------------+
 |                     Vertex Based Partitioning                      |
 +--------------------------------------------------------------------+

 Partitioning of domain: environment

 - Partitioning tool:       MeTiS multilevel k-way algorithm
 - Number of partitions:             6
 - Number of graph-nodes:         6410
 - Number of graph-edges:        83150

 +--------------------------------------------------------------------+
 |                 Iso-Partition Connection Statistics                |
 +--------------------------------------------------------------------+
 | Domains in Group          |        |           Vertices            |
 |                           | Smooth +---------+----------+----------+
 |                           | Sweeps |  Moves  |   <25%   |   <50%   |
 +---------------------------+--------+---------+----------+----------+
 | environment               |     3  |       4 |       0  |      51  |
 +---------------------------+--------+---------+----------+----------+

 +--------------------------------------------------------------------+
 |                      Partitioning Information                      |
 +--------------------------------------------------------------------+

 Partitioning information for domain: environment

        +------------------+------------------------+-----------------+
        |     Elements     |        Vertices        |     Faces       |
 +------+------------------+------------------------+-----------------+
 | Part |   Number     %   |   Number     %   %Ovlp |  Number     %   |
 +------+------------------+------------------------+-----------------+
 | Full |     33701        |      6410              |     2930        |
 +------+------------------+------------------------+-----------------+
 |    1 |      6827   17.5 |      1452   17.1  24.4 |      457   14.1 |
 |    2 |      6594   16.9 |      1415   16.7  25.0 |      465   14.3 |
 |    3 |      6781   17.4 |      1476   17.4  29.7 |      405   12.5 |
 |    4 |      6220   16.0 |      1394   16.4  21.4 |      721   22.2 |
 |    5 |      7304   18.8 |      1536   18.1  29.4 |      270    8.3 |
 |    6 |      5183   13.3 |      1208   14.2  14.5 |      932   28.7 |
 +------+------------------+------------------------+-----------------+
 | Min  |      5183   13.3 |      1208   14.2  14.5 |      270    8.3 |
 |(part)|           (    6)|           (    6     6)|          (    5)|
 +------+------------------+------------------------+-----------------+
 | Max  |      7304   18.8 |      1536   18.1  29.7 |      932   28.7 |
 |(part)|           (    5)|           (    5     3)|          (    6)|
 +------+------------------+------------------------+-----------------+
 | Ave  |      6485   16.7 |      1414   16.7  24.1 |      542   16.7 |
 +------+------------------+------------------------+-----------------+
 | Sum  |     38909  100.0 |      8481  100.0       |     3250  100.0 |
 +------+------------------+------------------------+-----------------+

 +--------------------------------------------------------------------+
 |                 Partitioning CPU-Time Requirements                 |
 +--------------------------------------------------------------------+
 Preparations                   1.10E-02    0.6 %
 Low-level Mesh Partitioning    5.00E-03    0.3 %
 File Reading                   4.00E-03    0.2 %
 Partition Smoothing            1.10E-02    0.6 %
 Topology - Global              1.00E-03    0.1 %
 Topology - Element/Face/Patch  2.00E-03    0.1 %
 Variable Updates               2.00E-03    0.1 %
 File Writing                   7.00E-03    0.4 %
 Miscellaneous                  1.71E+00   97.5 %
                                --------
 Total                          1.75E+00

 +--------------------------------------------------------------------+
 |                   Job Information at End of Run                    |
 +--------------------------------------------------------------------+

 Host computer:  LAPTOP-H6QTN7OP (PID:1036)

 Job finished:   Sun Jun 28 22:20:29 2020

 Total wall clock time: 1.559E+00 seconds
             or: (          0:         0:         0:     1.559 )
                 (       Days:     Hours:   Minutes:   Seconds )

 
 +--------------------------------------------------------------------+
 |                                                                    |
 |                               Solver                               |
 |                                                                    |
 +--------------------------------------------------------------------+
 



 +--------------------------------------------------------------------+
 |                                                                    |
 |                       ANSYS(R) CFX(R) Solver                       |
 |                                                                    |
 | 2020 R1                                                            |
 | Build 20.1 2019-11-18T23:17:56.638000                              |
 | Tue Nov 19 00:59:43 GMTST 2019                                     |
 |                                                                    |
 |                        Executable Attributes                       |
 |                                                                    |
 |           single-64bit-int32-archfort-optimised-std-lcomp          |
 |                                                                    |
 | (C) 1996-2020 ANSYS, Inc.                                          |
 |                                                                    |
 | All rights reserved. Unauthorized use, distribution or duplication |
 | is prohibited. This product is subject to U.S. laws governing      |
 | export and re-export. For full Legal Notice, see documentation.    |
 +--------------------------------------------------------------------+




 +--------------------------------------------------------------------+
 |                  Job Information at Start of Run                   |
 +--------------------------------------------------------------------+

 Run mode:       parallel run (MPI)

 Job started:    Sun Jun 28 22:20:29 2020

 +--------------------------------------------------------------------+
 |                        License Information                         |
 +--------------------------------------------------------------------+
 
 License Cap:    ANSYS CFX Solver (Max 128K Nodes)
 License Cap:     Parallel
 License ID:     LAPTOP-H6QTN7OP-Muphy-30784-016134


 +--------------------------------------------------------------------+
 |        Memory Allocated for Run  (Actual usage may be less)        |
 +--------------------------------------------------------------------+

 Allocated storage in:    Mwords
                          Mbytes

 Partition | Real       | Integer    | Character | Logical  | Double
 ----------+------------+------------+-----------+----------+----------
   Minimum |      17.58 |       1.98 |      7.85 |     0.12 |     0.41
  (     6) |      67.07 |       7.54 |      7.49 |     0.11 |     3.15
 ----------+------------+------------+-----------+----------+----------
   Maximum |      17.65 |       2.02 |      7.85 |     0.12 |     0.41
  (     5) |      67.34 |       7.70 |      7.49 |     0.11 |     3.15
 ----------+------------+------------+-----------+----------+----------
   Average |      17.62 |       2.00 |      7.85 |     0.12 |     0.41
           |      67.23 |       7.64 |      7.49 |     0.11 |     3.15
 ----------+------------+------------+-----------+----------+----------
     Total |     105.74 |      12.02 |     47.11 |     0.72 |     2.47
           |     403.36 |      45.85 |     44.93 |     0.69 |    18.88
 ----------+------------+------------+-----------+----------+----------


 +--------------------------------------------------------------------+
 |                  Host Memory Information (Mbytes)                  |
 +--------------------------------------------------------------------+
 |           Host         | Npart |   System    |  Allocated  |   %   |
 +------------------------+-------+-------------+-------------+-------+
 | LAPTOP-H6QTN7OP        |    6  |    16263.30 |      513.70 |  3.16 |
 +------------------------+-------+-------------+-------------+-------+

 +--------------------------------------------------------------------+
 |                      Topology Simplification                       |
 +--------------------------------------------------------------------+

 +--------------------------------------------------------------------+
 |                       ****** Warning ******                        |
 |                                                                    |
 | Topology simplification is activated with the following            |
 | restrictions:                                                      |
 |                                                                    |
 | - Mesh regions referenced only within User Fortran and NOT         |
 |   in the command file will cause the solver to stop.               |
 | - The solver will stop during any "Edit Run in Progress" step      |
 |   if new 2D regions are referenced.                                |
 +--------------------------------------------------------------------+

 +--------------------------------------------------------------------+
 |                          Mesh Statistics                           |
 +--------------------------------------------------------------------+
 | Domain Name          | Orthog. Angle | Exp. Factor  | Aspect Ratio |
 +----------------------+---------------+--------------+--------------+
 |                      | Minimum [deg] |   Maximum    |    Maximum   |
 +----------------------+---------------+--------------+--------------+
 | environment          |       49.2 ok |        10 ok |         4 OK |
 | person               |       62.6 OK |         2 OK |         5 OK |
 | Global               |       49.2 ok |        10 ok |         5 OK |
 +----------------------+---------------+--------------+--------------+
 |                      |  %!  %ok  %OK | %!  %ok  %OK | %!  %ok  %OK |
 +----------------------+---------------+--------------+--------------+
 | environment          |   0   <1  100 |  0    4   96 |  0    0  100 |
 | person               |   0    0  100 |  0    0  100 |  0    0  100 |
 | Global               |   0   <1  100 |  0    3   97 |  0    0  100 |
 +----------------------+---------------+--------------+--------------+

 Domain Name : environment

     Total Number of Nodes                                =        6410

     Total Number of Elements                             =       33701
         Total Number of Tetrahedrons                     =       33701

     Total Number of Faces                                =        2930

 Domain Name : person

     Total Number of Nodes                                =        1617

     Total Number of Elements                             =        1340
         Total Number of Prisms                           =          40
         Total Number of Hexahedrons                      =        1300

     Total Number of Faces                                =         534
 
 Global Statistics :

     Global Number of Nodes                               =        8027

     Global Number of Elements                            =       35041
         Total Number of Tetrahedrons                     =       33701
         Total Number of Prisms                           =          40
         Total Number of Hexahedrons                      =        1300

     Global Number of Faces                               =        3464

 +--------------------------------------------------------------------+
 |                   Reference Pressure Information                   |
 +--------------------------------------------------------------------+

 Domain Group: environment
  
   Pressure has not been set at any boundary conditions.
   The pressure will be set to  0.00000E+00 at the following location:
   Domain      : environment
   Node        :        1 (equation         1)
   Coordinates : (-1.93364E+00, 1.67091E+00, 2.14993E+00).

 +--------------------------------------------------------------------+
 |                     Average Scale Information                      |
 +--------------------------------------------------------------------+

 Domain Name : environment
     Global Length                                         = 6.9520E+00
     Minimum Extent                                        = 3.5000E+00
     Maximum Extent                                        = 1.2000E+01
     Density                                               = 1.1850E+00
     Dynamic Viscosity                                     = 1.8310E-05
     Velocity                                              = 0.0000E+00

 Domain Name : person
     Global Length                                         = 7.9402E-01
     Minimum Extent                                        = 6.0000E-01
     Maximum Extent                                        = 1.8000E+00

 +--------------------------------------------------------------------+
 |                Checking for Isolated Fluid Regions                 |
 +--------------------------------------------------------------------+
 
 No isolated fluid regions were found.

 +--------------------------------------------------------------------+
 |              The Equations Solved in This Calculation              |
 +--------------------------------------------------------------------+
 
 Equations are given two labels: the individual name and a combined 
 name used for combining residuals together.  Residuals for multidomain 
 problems are combined provided the domains are connected together and 
 have the same domain type (solid or fluid/porous).  If there are 
 multiple groups of the same domain type, then the group residual is 
 identified by the name of the first domain in the connected group. 
 
 The individual and combined equation names are given below.

 Subsystem : Momentum and Mass

   U-Mom-environment                         --> U-Mom
   V-Mom-environment                         --> V-Mom
   W-Mom-environment                         --> W-Mom
   P-Mass-environment                        --> P-Mass

 Subsystem : Additional Variables

   odor-environment                          --> odor

 Subsystem : TurbKE and Diss.K

   K-TurbKE-environment                      --> K-TurbKE
   E-Diss.K-environment                      --> E-Diss.K
                   
 CFD Solver started: Sun Jun 28 22:20:34 2020


 +--------------------------------------------------------------------+
 |                       Convergence History                          |
 +--------------------------------------------------------------------+

 +--------------------------------------------------------------------+
 | Writing transient file 0.trn                                       |
 |   Name   : Transient Results 1                                     |
 |   Type   : Selected Variables                                      |
 |   Option : Every Timestep                                          |
 +--------------------------------------------------------------------+


 ======================================================================
 |                      Timestepping Information                      |
 ----------------------------------------------------------------------
 |       Timestep       |  RMS Courant Number  |  Max Courant Number  |
 +----------------------+----------------------+----------------------+
 |      1.0000E+00      |          0.00        |          0.00        |
 ----------------------------------------------------------------------

 ======================================================================
 TIME STEP =     1 SIMULATION TIME = 1.0000E+00 CPU SECONDS = 2.859E+01
 ----------------------------------------------------------------------
 COEFFICIENT LOOP ITERATION =    1              CPU SECONDS = 2.859E+01
 ----------------------------------------------------------------------
 |       Equation       | Rate | RMS Res | Max Res |  Linear Solution |
 +----------------------+------+---------+---------+------------------+
 | U-Mom                | 0.00 | 7.1E-03 | 3.8E-01 |       4.0E-06  OK|
 | V-Mom                | 0.00 | 2.9E-03 | 6.5E-02 |       4.5E+00  F |
 | W-Mom                | 0.00 | 1.2E-03 | 2.8E-02 |       1.1E-04  OK|
 | P-Mass               | 0.00 | 8.4E-03 | 2.3E-01 | 38.6  1.2E-01  ok|
 +----------------------+------+---------+---------+------------------+
 | odor                 | 0.00 | 6.4E-02 | 9.7E-01 |  5.2  2.2E-02  OK|
 +----------------------+------+---------+---------+------------------+
 | K-TurbKE             | 0.00 | 4.3E-02 | 6.6E-01 |  5.3  7.0E-03  OK|
 | E-Diss.K             | 0.00 | 5.6E-02 | 9.8E-01 | 10.2  5.8E-04  OK|
 +----------------------+------+---------+---------+------------------+
 ----------------------------------------------------------------------
 COEFFICIENT LOOP ITERATION =    2              CPU SECONDS = 2.975E+01
 ----------------------------------------------------------------------
 |       Equation       | Rate | RMS Res | Max Res |  Linear Solution |
 +----------------------+------+---------+---------+------------------+
 | U-Mom                | 4.10 | 2.9E-02 | 6.0E-01 |       4.3E-03  OK|
 | V-Mom                |11.38 | 3.3E-02 | 6.3E-01 |       6.4E-02  OK|
 | W-Mom                |16.06 | 1.9E-02 | 4.9E-01 |       4.4E-02  OK|
 | P-Mass               | 8.23 | 6.9E-02 | 1.5E+00 |  8.5  2.3E-02  OK|
 +----------------------+------+---------+---------+------------------+
 | odor                 | 0.44 | 2.8E-02 | 1.3E-01 |  5.3  7.1E-02  OK|
 +----------------------+------+---------+---------+------------------+
 | K-TurbKE             | 0.47 | 2.0E-02 | 2.0E-01 |  5.3  6.8E-04  OK|
 | E-Diss.K             | 1.53 | 8.5E-02 | 1.0E+00 | 10.3  9.1E-03  OK|
 +----------------------+------+---------+---------+------------------+
 ----------------------------------------------------------------------
 COEFFICIENT LOOP ITERATION =    3              CPU SECONDS = 3.076E+01
 ----------------------------------------------------------------------
 |       Equation       | Rate | RMS Res | Max Res |  Linear Solution |
 +----------------------+------+---------+---------+------------------+
 | U-Mom                | 0.67 | 1.9E-02 | 1.2E-01 |       1.4E-03  OK|
 | V-Mom                | 0.66 | 2.2E-02 | 1.3E-01 |       1.7E-02  OK|
 | W-Mom                | 0.64 | 1.2E-02 | 7.4E-02 |       5.7E-03  OK|
 | P-Mass               | 0.08 | 5.8E-03 | 9.1E-02 |  8.5  6.1E-02  OK|
 +----------------------+------+---------+---------+------------------+
 | odor                 | 0.62 | 1.7E-02 | 2.7E-01 |  5.3  2.1E-02  OK|
 +----------------------+------+---------+---------+------------------+
 | K-TurbKE             | 1.64 | 3.3E-02 | 5.8E-01 |  5.3  6.7E-06  OK|
 | E-Diss.K             | 0.53 | 4.5E-02 | 5.4E-01 | 10.3  1.3E-03  OK|
 +----------------------+------+---------+---------+------------------+
 ----------------------------------------------------------------------
 COEFFICIENT LOOP ITERATION =    4              CPU SECONDS = 3.180E+01
 ----------------------------------------------------------------------
 |       Equation       | Rate | RMS Res | Max Res |  Linear Solution |
 +----------------------+------+---------+---------+------------------+
 | U-Mom                | 0.64 | 1.3E-02 | 1.6E-01 |       1.2E-03  OK|
 | V-Mom                | 0.63 | 1.4E-02 | 1.9E-01 |       1.2E-02  OK|
 | W-Mom                | 0.70 | 8.6E-03 | 8.6E-02 |       5.1E-03  OK|
 | P-Mass               | 0.44 | 2.6E-03 | 4.9E-02 |  8.5  8.9E-02  OK|
 +----------------------+------+---------+---------+------------------+
 | odor                 | 0.40 | 6.9E-03 | 8.7E-02 |  5.3  2.4E-02  OK|
 +----------------------+------+---------+---------+------------------+
 | K-TurbKE             | 0.39 | 1.3E-02 | 4.1E-01 |  5.5  2.2E-05  OK|
 | E-Diss.K             | 0.50 | 2.3E-02 | 3.5E-01 | 10.3  6.0E-04  OK|
 +----------------------+------+---------+---------+------------------+
 ----------------------------------------------------------------------
 COEFFICIENT LOOP ITERATION =    5              CPU SECONDS = 3.287E+01
 ----------------------------------------------------------------------
 |       Equation       | Rate | RMS Res | Max Res |  Linear Solution |
 +----------------------+------+---------+---------+------------------+
 | U-Mom                | 0.43 | 5.4E-03 | 5.4E-02 |       2.4E-03  OK|
 | V-Mom                | 0.44 | 6.2E-03 | 6.1E-02 |       1.9E-02  OK|
 | W-Mom                | 0.38 | 3.3E-03 | 4.6E-02 |       1.3E-02  OK|
 | P-Mass               | 0.64 | 1.6E-03 | 2.5E-02 |  8.5  6.5E-02  OK|
 +----------------------+------+---------+---------+------------------+
 | odor                 | 0.73 | 5.0E-03 | 5.9E-02 |  5.3  1.0E-02  OK|
 +----------------------+------+---------+---------+------------------+
 | K-TurbKE             | 0.66 | 8.5E-03 | 1.7E-01 |  5.3  1.1E-04  OK|
 | E-Diss.K             | 0.33 | 7.4E-03 | 2.8E-01 | 10.3  4.1E-04  OK|
 +----------------------+------+---------+---------+------------------+
 ----------------------------------------------------------------------
 COEFFICIENT LOOP ITERATION =    6              CPU SECONDS = 3.381E+01
 ----------------------------------------------------------------------
 |       Equation       | Rate | RMS Res | Max Res |  Linear Solution |
 +----------------------+------+---------+---------+------------------+
 | U-Mom                | 0.73 | 3.9E-03 | 3.9E-02 |       7.3E-04  OK|
 | V-Mom                | 0.70 | 4.3E-03 | 4.2E-02 |       7.3E-03  OK|
 | W-Mom                | 0.75 | 2.4E-03 | 3.8E-02 |       3.7E-03  OK|
 | P-Mass               | 0.46 | 7.5E-04 | 6.8E-03 |  8.5  3.2E-02  OK|
 +----------------------+------+---------+---------+------------------+
 | odor                 | 0.51 | 2.6E-03 | 2.8E-02 |  5.3  6.4E-03  OK|
 +----------------------+------+---------+---------+------------------+
 | K-TurbKE             | 1.11 | 9.4E-03 | 1.7E-01 |  5.5  5.0E-05  OK|
 | E-Diss.K             | 0.72 | 5.3E-03 | 7.9E-02 | 10.3  7.8E-04  OK|
 +----------------------+------+---------+---------+------------------+
 ----------------------------------------------------------------------
 COEFFICIENT LOOP ITERATION =    7              CPU SECONDS = 3.484E+01
 ----------------------------------------------------------------------
 |       Equation       | Rate | RMS Res | Max Res |  Linear Solution |
 +----------------------+------+---------+---------+------------------+
 | U-Mom                | 0.53 | 2.1E-03 | 2.4E-02 |       6.2E-04  OK|
 | V-Mom                | 0.51 | 2.2E-03 | 2.8E-02 |       5.5E-03  OK|
 | W-Mom                | 0.55 | 1.3E-03 | 1.7E-02 |       2.9E-03  OK|
 | P-Mass               | 0.63 | 4.8E-04 | 7.5E-03 |  8.5  4.2E-02  OK|
 +----------------------+------+---------+---------+------------------+
 | odor                 | 0.59 | 1.5E-03 | 1.7E-02 |  5.4  2.1E-03  OK|
 +----------------------+------+---------+---------+------------------+
 | K-TurbKE             | 1.29 | 1.2E-02 | 2.7E-01 |  5.3  5.3E-06  OK|
 | E-Diss.K             | 1.42 | 7.5E-03 | 1.4E-01 | 10.3  9.2E-04  OK|
 +----------------------+------+---------+---------+------------------+
 ----------------------------------------------------------------------
 COEFFICIENT LOOP ITERATION =    8              CPU SECONDS = 3.582E+01
 ----------------------------------------------------------------------
 |       Equation       | Rate | RMS Res | Max Res |  Linear Solution |
 +----------------------+------+---------+---------+------------------+
 | U-Mom                | 0.64 | 1.3E-03 | 2.0E-02 |       1.2E-03  OK|
 | V-Mom                | 0.58 | 1.3E-03 | 1.3E-02 |       1.5E-02  OK|
 | W-Mom                | 0.56 | 7.5E-04 | 8.3E-03 |       7.0E-03  OK|
 | P-Mass               | 0.60 | 2.9E-04 | 4.8E-03 |  8.5  6.0E-02  OK|
 +----------------------+------+---------+---------+------------------+
 | odor                 | 0.51 | 7.8E-04 | 9.3E-03 |  5.3  1.2E-03  OK|
 +----------------------+------+---------+---------+------------------+
 | K-TurbKE             | 1.18 | 1.4E-02 | 4.2E-01 |  5.5  3.2E-06  OK|
 | E-Diss.K             | 1.28 | 9.6E-03 | 3.2E-01 | 10.3  1.1E-03  OK|
 +----------------------+------+---------+---------+------------------+
 ----------------------------------------------------------------------
 COEFFICIENT LOOP ITERATION =    9              CPU SECONDS = 3.670E+01
 ----------------------------------------------------------------------
 |       Equation       | Rate | RMS Res | Max Res |  Linear Solution |
 +----------------------+------+---------+---------+------------------+
 | U-Mom                | 0.61 | 8.1E-04 | 1.6E-02 |       2.0E-03  OK|
 | V-Mom                | 0.54 | 7.0E-04 | 1.0E-02 |       2.3E-02  OK|
 | W-Mom                | 0.56 | 4.2E-04 | 6.6E-03 |       1.0E-02  OK|
 | P-Mass               | 0.69 | 2.0E-04 | 4.1E-03 |  8.5  5.6E-02  OK|
 +----------------------+------+---------+---------+------------------+
 | odor                 | 0.62 | 4.9E-04 | 5.9E-03 |  5.3  2.8E-03  OK|
 +----------------------+------+---------+---------+------------------+
 | K-TurbKE             | 1.15 | 1.7E-02 | 5.2E-01 |  5.3  2.2E-06  OK|
 | E-Diss.K             | 1.18 | 1.1E-02 | 4.5E-01 | 10.3  1.0E-03  OK|
 +----------------------+------+---------+---------+------------------+
 ----------------------------------------------------------------------
 COEFFICIENT LOOP ITERATION =   10              CPU SECONDS = 3.771E+01
 ----------------------------------------------------------------------
 |       Equation       | Rate | RMS Res | Max Res |  Linear Solution |
 +----------------------+------+---------+---------+------------------+
 | U-Mom                | 0.61 | 4.9E-04 | 1.1E-02 |       3.5E-03  OK|
 | V-Mom                | 0.58 | 4.1E-04 | 5.4E-03 |       3.3E-02  OK|
 | W-Mom                | 0.58 | 2.4E-04 | 3.6E-03 |       1.6E-02  OK|
 | P-Mass               | 0.76 | 1.5E-04 | 3.1E-03 |  8.5  5.6E-02  OK|
 +----------------------+------+---------+---------+------------------+
 | odor                 | 0.56 | 2.7E-04 | 4.1E-03 |  5.3  3.3E-03  OK|
 +----------------------+------+---------+---------+------------------+
 | K-TurbKE             | 0.76 | 1.3E-02 | 5.2E-01 |  5.3  1.4E-06  OK|
 | E-Diss.K             | 1.09 | 1.2E-02 | 5.6E-01 | 10.3  4.3E-04  OK|
 +----------------------+------+---------+---------+------------------+

 +--------------------------------------------------------------------+
 | Writing transient file 1.trn                                       |
 |   Name   : Transient Results 1                                     |
 |   Type   : Selected Variables                                      |
 |   Option : Every Timestep                                          |
 +--------------------------------------------------------------------+


 ======================================================================
 |                      Timestepping Information                      |
 ----------------------------------------------------------------------
 |       Timestep       |  RMS Courant Number  |  Max Courant Number  |
 +----------------------+----------------------+----------------------+
 |      1.0000E+00      |         15.93        |        357.31        |
 ----------------------------------------------------------------------

 ======================================================================
 TIME STEP =     2 SIMULATION TIME = 2.0000E+00 CPU SECONDS = 3.992E+01
 ----------------------------------------------------------------------
 COEFFICIENT LOOP ITERATION =    1              CPU SECONDS = 3.993E+01
 ----------------------------------------------------------------------
 |       Equation       | Rate | RMS Res | Max Res |  Linear Solution |
 +----------------------+------+---------+---------+------------------+
 | U-Mom                | 1.20 | 8.5E-03 | 1.9E-01 |       2.5E-05  OK|
 | V-Mom                | 2.98 | 8.7E-03 | 1.2E-01 |       4.1E-02  OK|
 | W-Mom                | 4.57 | 5.4E-03 | 7.7E-02 |       2.9E-03  OK|
 | P-Mass               | 0.24 | 2.0E-03 | 6.9E-02 | 12.3  8.0E-02  OK|
 +----------------------+------+---------+---------+------------------+
 | odor                 | 0.49 | 3.1E-02 | 4.8E-01 |  5.4  3.8E-02  OK|
 +----------------------+------+---------+---------+------------------+
 | K-TurbKE             | 0.24 | 1.0E-02 | 3.0E-01 |  5.3  3.1E-05  OK|
 | E-Diss.K             | 0.26 | 1.5E-02 | 6.5E-01 | 10.3  2.8E-04  OK|
 +----------------------+------+---------+---------+------------------+
 ----------------------------------------------------------------------
 COEFFICIENT LOOP ITERATION =    2              CPU SECONDS = 4.094E+01
 ----------------------------------------------------------------------
 |       Equation       | Rate | RMS Res | Max Res |  Linear Solution |
 +----------------------+------+---------+---------+------------------+
 | U-Mom                | 0.80 | 6.8E-03 | 6.1E-02 |       2.5E-02  OK|
 | V-Mom                | 0.90 | 7.8E-03 | 7.0E-02 |       2.2E-01  ok|
 | W-Mom                | 0.78 | 4.3E-03 | 4.5E-02 |       2.0E-01  ok|
 | P-Mass               | 0.59 | 1.2E-03 | 1.9E-02 |  4.8  8.1E-02  OK|
 +----------------------+------+---------+---------+------------------+
 | odor                 | 0.14 | 4.2E-03 | 5.8E-02 |  5.3  1.4E-02  OK|
 +----------------------+------+---------+---------+------------------+
 | K-TurbKE             | 0.81 | 8.2E-03 | 7.5E-02 |  5.4  2.0E-04  OK|
 | E-Diss.K             | 0.55 | 8.0E-03 | 2.5E-01 | 10.3  1.4E-04  OK|
 +----------------------+------+---------+---------+------------------+
 ----------------------------------------------------------------------
 COEFFICIENT LOOP ITERATION =    3              CPU SECONDS = 4.181E+01
 ----------------------------------------------------------------------
 |       Equation       | Rate | RMS Res | Max Res |  Linear Solution |
 +----------------------+------+---------+---------+------------------+
 | U-Mom                | 0.83 | 5.6E-03 | 7.6E-02 |       1.4E-01  ok|
 | V-Mom                | 0.85 | 6.7E-03 | 9.4E-02 |       1.6E-01  ok|
 | W-Mom                | 0.84 | 3.6E-03 | 5.1E-02 |       2.1E-01  ok|
 | P-Mass               | 0.52 | 6.0E-04 | 6.9E-03 |  8.5  5.9E-02  OK|
 +----------------------+------+---------+---------+------------------+
 | odor                 | 1.25 | 5.3E-03 | 6.6E-02 |  5.3  3.4E-02  OK|
 +----------------------+------+---------+---------+------------------+
 | K-TurbKE             | 0.79 | 6.4E-03 | 7.9E-02 |  5.4  1.9E-04  OK|
 | E-Diss.K             | 0.84 | 6.7E-03 | 1.8E-01 | 10.3  2.3E-04  OK|
 +----------------------+------+---------+---------+------------------+
 ----------------------------------------------------------------------
 COEFFICIENT LOOP ITERATION =    4              CPU SECONDS = 4.282E+01
 ----------------------------------------------------------------------
 |       Equation       | Rate | RMS Res | Max Res |  Linear Solution |
 +----------------------+------+---------+---------+------------------+
 | U-Mom                | 0.61 | 3.5E-03 | 6.1E-02 |       1.9E-01  ok|
 | V-Mom                | 0.60 | 4.0E-03 | 6.2E-02 |       2.8E-01  ok|
 | W-Mom                | 0.61 | 2.2E-03 | 3.9E-02 |       3.2E-01  ok|
 | P-Mass               | 1.07 | 6.4E-04 | 8.6E-03 |  8.5  7.5E-02  OK|
 +----------------------+------+---------+---------+------------------+
 | odor                 | 0.65 | 3.5E-03 | 5.9E-02 |  5.4  2.2E-02  OK|
 +----------------------+------+---------+---------+------------------+
 | K-TurbKE             | 0.66 | 4.3E-03 | 5.4E-02 |  5.4  1.2E-04  OK|
 | E-Diss.K             | 0.54 | 3.6E-03 | 5.8E-02 | 10.3  1.8E-04  OK|
 +----------------------+------+---------+---------+------------------+
 ----------------------------------------------------------------------
 COEFFICIENT LOOP ITERATION =    5              CPU SECONDS = 4.374E+01
 ----------------------------------------------------------------------
 |       Equation       | Rate | RMS Res | Max Res |  Linear Solution |
 +----------------------+------+---------+---------+------------------+
 | U-Mom                | 0.59 | 2.0E-03 | 3.9E-02 |       2.8E-01  ok|
 | V-Mom                | 0.57 | 2.3E-03 | 3.5E-02 |       3.4E-01  ok|
 | W-Mom                | 0.59 | 1.3E-03 | 3.0E-02 |       3.7E-01  ok|
 | P-Mass               | 0.42 | 2.7E-04 | 2.8E-03 |  8.5  9.4E-02  OK|
 +----------------------+------+---------+---------+------------------+
 | odor                 | 0.58 | 2.0E-03 | 3.7E-02 |  5.3  2.2E-02  OK|
 +----------------------+------+---------+---------+------------------+
 | K-TurbKE             | 0.75 | 3.2E-03 | 4.1E-02 |  5.4  2.0E-04  OK|
 | E-Diss.K             | 0.77 | 2.8E-03 | 3.1E-02 | 10.3  5.1E-04  OK|
 +----------------------+------+---------+---------+------------------+
 ----------------------------------------------------------------------
 COEFFICIENT LOOP ITERATION =    6              CPU SECONDS = 4.469E+01
 ----------------------------------------------------------------------
 |       Equation       | Rate | RMS Res | Max Res |  Linear Solution |
 +----------------------+------+---------+---------+------------------+
 | U-Mom                | 0.60 | 1.2E-03 | 2.5E-02 |       2.1E-01  ok|
 | V-Mom                | 0.62 | 1.4E-03 | 2.3E-02 |       2.3E-01  ok|
 | W-Mom                | 0.62 | 7.9E-04 | 2.1E-02 |       2.5E-01  ok|
 | P-Mass               | 0.79 | 2.1E-04 | 2.9E-03 | 12.3  7.3E-02  OK|
 +----------------------+------+---------+---------+------------------+
 | odor                 | 0.46 | 9.3E-04 | 1.6E-02 |  5.3  1.4E-02  OK|
 +----------------------+------+---------+---------+------------------+
 | K-TurbKE             | 1.22 | 3.9E-03 | 7.4E-02 |  5.3  3.0E-04  OK|
 | E-Diss.K             | 1.47 | 4.1E-03 | 1.0E-01 | 10.3  1.6E-03  OK|
 +----------------------+------+---------+---------+------------------+
 ----------------------------------------------------------------------
 COEFFICIENT LOOP ITERATION =    7              CPU SECONDS = 4.562E+01
 ----------------------------------------------------------------------
 |       Equation       | Rate | RMS Res | Max Res |  Linear Solution |
 +----------------------+------+---------+---------+------------------+
 | U-Mom                | 0.52 | 6.4E-04 | 1.2E-02 |       1.7E-01  ok|
 | V-Mom                | 0.52 | 7.3E-04 | 1.1E-02 |       2.8E-01  ok|
 | W-Mom                | 0.52 | 4.1E-04 | 1.0E-02 |       2.9E-01  ok|
 | P-Mass               | 0.52 | 1.1E-04 | 1.2E-03 | 12.3  8.7E-02  OK|
 +----------------------+------+---------+---------+------------------+
 | odor                 | 0.53 | 4.9E-04 | 9.9E-03 |  5.3  9.6E-03  OK|
 +----------------------+------+---------+---------+------------------+
 | K-TurbKE             | 0.88 | 3.4E-03 | 8.8E-02 |  5.3  7.2E-04  OK|
 | E-Diss.K             | 1.03 | 4.2E-03 | 1.3E-01 | 10.3  1.8E-03  OK|
 +----------------------+------+---------+---------+------------------+
 ----------------------------------------------------------------------
 COEFFICIENT LOOP ITERATION =    8              CPU SECONDS = 4.656E+01
 ----------------------------------------------------------------------
 |       Equation       | Rate | RMS Res | Max Res |  Linear Solution |
 +----------------------+------+---------+---------+------------------+
 | U-Mom                | 0.55 | 3.5E-04 | 6.4E-03 |       1.5E-01  ok|
 | V-Mom                | 0.55 | 4.0E-04 | 5.9E-03 |       2.4E-01  ok|
 | W-Mom                | 0.56 | 2.3E-04 | 6.3E-03 |       2.5E-01  ok|
 | P-Mass               | 0.51 | 5.6E-05 | 7.2E-04 | 16.0  8.1E-02  OK|
 +----------------------+------+---------+---------+------------------+
 | odor                 | 0.46 | 2.2E-04 | 3.2E-03 |  5.3  7.4E-03  OK|
 +----------------------+------+---------+---------+------------------+
 | K-TurbKE             | 0.72 | 2.4E-03 | 8.8E-02 |  5.4  5.2E-04  OK|
 | E-Diss.K             | 0.90 | 3.8E-03 | 1.5E-01 | 10.3  1.7E-03  OK|
 +----------------------+------+---------+---------+------------------+
 ----------------------------------------------------------------------
 COEFFICIENT LOOP ITERATION =    9              CPU SECONDS = 4.758E+01
 ----------------------------------------------------------------------
 |       Equation       | Rate | RMS Res | Max Res |  Linear Solution |
 +----------------------+------+---------+---------+------------------+
 | U-Mom                | 0.51 | 1.8E-04 | 2.3E-03 |       1.4E-01  ok|
 | V-Mom                | 0.52 | 2.1E-04 | 2.5E-03 |       3.0E-01  ok|
 | W-Mom                | 0.53 | 1.2E-04 | 1.7E-03 |       2.9E-01  ok|
 | P-Mass               | 0.63 | 3.6E-05 | 3.1E-04 | 19.8  9.4E-02  OK|
 +----------------------+------+---------+---------+------------------+
 | odor                 | 0.50 | 1.1E-04 | 1.3E-03 |  5.3  6.8E-03  OK|
 +----------------------+------+---------+---------+------------------+
 | K-TurbKE             | 0.66 | 1.6E-03 | 4.8E-02 |  5.4  2.6E-04  OK|
 | E-Diss.K             | 0.62 | 2.3E-03 | 1.1E-01 | 10.3  4.1E-04  OK|
 +----------------------+------+---------+---------+------------------+
 ----------------------------------------------------------------------
 COEFFICIENT LOOP ITERATION =   10              CPU SECONDS = 4.856E+01
 ----------------------------------------------------------------------
 |       Equation       | Rate | RMS Res | Max Res |  Linear Solution |
 +----------------------+------+---------+---------+------------------+
 | U-Mom                | 0.56 | 1.0E-04 | 1.3E-03 |       1.7E-01  ok|
 | V-Mom                | 0.54 | 1.1E-04 | 1.3E-03 |       4.3E-01  ok|
 | W-Mom                | 0.57 | 6.9E-05 | 8.9E-04 |       3.9E-01  ok|
 | P-Mass               | 0.60 | 2.1E-05 | 2.1E-04 | 42.4  1.2E-01  ok|
 +----------------------+------+---------+---------+------------------+
 | odor                 | 0.74 | 8.3E-05 | 9.6E-04 |  5.3  1.1E-02  OK|
 +----------------------+------+---------+---------+------------------+
 | K-TurbKE             | 1.27 | 2.1E-03 | 4.5E-02 |  5.3  1.4E-03  OK|
 | E-Diss.K             | 0.65 | 1.5E-03 | 3.2E-02 | 10.3  3.1E-03  OK|
 +----------------------+------+---------+---------+------------------+

 +--------------------------------------------------------------------+
 | Writing transient file 2.trn                                       |
 |   Name   : Transient Results 1                                     |
 |   Type   : Selected Variables                                      |
 |   Option : Every Timestep                                          |
 +--------------------------------------------------------------------+


 ======================================================================
 |                      Timestepping Information                      |
 ----------------------------------------------------------------------
 |       Timestep       |  RMS Courant Number  |  Max Courant Number  |
 +----------------------+----------------------+----------------------+
 |      1.0000E+00      |         16.21        |        357.32        |
 ----------------------------------------------------------------------

 ======================================================================
 TIME STEP =     3 SIMULATION TIME = 3.0000E+00 CPU SECONDS = 5.108E+01
 ----------------------------------------------------------------------
 COEFFICIENT LOOP ITERATION =    1              CPU SECONDS = 5.108E+01
 ----------------------------------------------------------------------
 |       Equation       | Rate | RMS Res | Max Res |  Linear Solution |
 +----------------------+------+---------+---------+------------------+
 | U-Mom                | 0.47 | 4.0E-03 | 1.3E-01 |       1.9E-04  OK|
 | V-Mom                | 0.43 | 3.8E-03 | 8.5E-02 |       2.7E-03  OK|
 | W-Mom                | 0.47 | 2.6E-03 | 4.0E-02 |       1.1E-03  OK|
 | P-Mass               | 0.47 | 9.3E-04 | 3.5E-02 |  4.8  7.7E-02  OK|
 +----------------------+------+---------+---------+------------------+
 | odor                 | 0.69 | 2.1E-02 | 3.2E-01 |  5.3  3.1E-02  OK|
 +----------------------+------+---------+---------+------------------+
 | K-TurbKE             | 0.27 | 2.7E-03 | 6.7E-02 |  5.4  4.0E-06  OK|
 | E-Diss.K             | 0.18 | 2.6E-03 | 5.4E-02 | 10.3  7.7E-05  OK|
 +----------------------+------+---------+---------+------------------+
 ----------------------------------------------------------------------
 COEFFICIENT LOOP ITERATION =    2              CPU SECONDS = 5.191E+01
 ----------------------------------------------------------------------
 |       Equation       | Rate | RMS Res | Max Res |  Linear Solution |
 +----------------------+------+---------+---------+------------------+
 | U-Mom                | 0.67 | 2.7E-03 | 6.4E-02 |       1.8E-04  OK|
 | V-Mom                | 0.76 | 2.9E-03 | 4.5E-02 |       2.4E-03  OK|
 | W-Mom                | 0.64 | 1.6E-03 | 3.3E-02 |       1.4E-03  OK|
 | P-Mass               | 0.53 | 4.9E-04 | 6.1E-03 |  8.5  6.2E-02  OK|
 +----------------------+------+---------+---------+------------------+
 | odor                 | 0.16 | 3.4E-03 | 4.6E-02 |  5.3  9.8E-03  OK|
 +----------------------+------+---------+---------+------------------+
 | K-TurbKE             | 1.35 | 3.7E-03 | 8.1E-02 |  5.5  2.1E-04  OK|
 | E-Diss.K             | 1.58 | 4.1E-03 | 1.2E-01 | 10.3  4.3E-04  OK|
 +----------------------+------+---------+---------+------------------+
 ----------------------------------------------------------------------
 COEFFICIENT LOOP ITERATION =    3              CPU SECONDS = 5.280E+01
 ----------------------------------------------------------------------
 |       Equation       | Rate | RMS Res | Max Res |  Linear Solution |
 +----------------------+------+---------+---------+------------------+
 | U-Mom                | 0.57 | 1.5E-03 | 3.2E-02 |       3.2E-04  OK|
 | V-Mom                | 0.59 | 1.7E-03 | 2.0E-02 |       3.7E-03  OK|
 | W-Mom                | 0.57 | 9.4E-04 | 1.5E-02 |       2.4E-03  OK|
 | P-Mass               | 0.69 | 3.4E-04 | 4.3E-03 |  8.5  7.7E-02  OK|
 +----------------------+------+---------+---------+------------------+
 | odor                 | 0.47 | 1.6E-03 | 1.7E-02 |  5.3  3.2E-03  OK|
 +----------------------+------+---------+---------+------------------+
 | K-TurbKE             | 0.46 | 1.7E-03 | 5.0E-02 |  5.4  1.1E-04  OK|
 | E-Diss.K             | 0.57 | 2.3E-03 | 9.6E-02 | 10.3  5.3E-04  OK|
 +----------------------+------+---------+---------+------------------+
 ----------------------------------------------------------------------
 COEFFICIENT LOOP ITERATION =    4              CPU SECONDS = 5.373E+01
 ----------------------------------------------------------------------
 |       Equation       | Rate | RMS Res | Max Res |  Linear Solution |
 +----------------------+------+---------+---------+------------------+
 | U-Mom                | 0.49 | 7.6E-04 | 1.6E-02 |       5.4E-04  OK|
 | V-Mom                | 0.49 | 8.2E-04 | 8.4E-03 |       5.5E-03  OK|
 | W-Mom                | 0.48 | 4.5E-04 | 8.1E-03 |       4.2E-03  OK|
 | P-Mass               | 0.54 | 1.8E-04 | 2.6E-03 |  8.5  9.5E-02  OK|
 +----------------------+------+---------+---------+------------------+
 | odor                 | 0.47 | 7.4E-04 | 9.0E-03 |  5.4  6.6E-03  OK|
 +----------------------+------+---------+---------+------------------+
 | K-TurbKE             | 0.86 | 1.5E-03 | 4.1E-02 |  5.4  3.5E-04  OK|
 | E-Diss.K             | 0.83 | 1.9E-03 | 8.4E-02 | 10.3  5.0E-04  OK|
 +----------------------+------+---------+---------+------------------+
 ----------------------------------------------------------------------
 COEFFICIENT LOOP ITERATION =    5              CPU SECONDS = 5.466E+01
 ----------------------------------------------------------------------
 |       Equation       | Rate | RMS Res | Max Res |  Linear Solution |
 +----------------------+------+---------+---------+------------------+
 | U-Mom                | 0.54 | 4.1E-04 | 8.1E-03 |       5.9E-04  OK|
 | V-Mom                | 0.54 | 4.5E-04 | 4.7E-03 |       5.7E-03  OK|
 | W-Mom                | 0.56 | 2.5E-04 | 5.1E-03 |       5.0E-03  OK|
 | P-Mass               | 0.45 | 8.2E-05 | 1.8E-03 | 12.3  8.4E-02  OK|
 +----------------------+------+---------+---------+------------------+
 | odor                 | 0.58 | 4.3E-04 | 4.8E-03 |  5.3  6.9E-03  OK|
 +----------------------+------+---------+---------+------------------+
 | K-TurbKE             | 0.41 | 6.0E-04 | 1.7E-02 |  5.3  7.2E-04  OK|
 | E-Diss.K             | 0.44 | 8.4E-04 | 4.5E-02 | 10.3  2.4E-04  OK|
 +----------------------+------+---------+---------+------------------+
 ----------------------------------------------------------------------
 COEFFICIENT LOOP ITERATION =    6              CPU SECONDS = 5.574E+01
 ----------------------------------------------------------------------
 |       Equation       | Rate | RMS Res | Max Res |  Linear Solution |
 +----------------------+------+---------+---------+------------------+
 | U-Mom                | 0.57 | 2.4E-04 | 4.0E-03 |       8.7E-04  OK|
 | V-Mom                | 0.57 | 2.6E-04 | 2.9E-03 |       7.3E-03  OK|
 | W-Mom                | 0.56 | 1.4E-04 | 2.2E-03 |       7.5E-03  OK|
 | P-Mass               | 0.71 | 5.8E-05 | 1.1E-03 | 16.0  9.5E-02  OK|
 +----------------------+------+---------+---------+------------------+
 | odor                 | 0.47 | 2.0E-04 | 2.7E-03 |  5.3  4.2E-03  OK|
 +----------------------+------+---------+---------+------------------+
 | K-TurbKE             | 1.36 | 8.1E-04 | 9.0E-03 |  5.4  2.0E-03  OK|
 | E-Diss.K             | 0.90 | 7.5E-04 | 1.4E-02 | 10.3  4.4E-04  OK|
 +----------------------+------+---------+---------+------------------+
 ----------------------------------------------------------------------
 COEFFICIENT LOOP ITERATION =    7              CPU SECONDS = 5.693E+01
 ----------------------------------------------------------------------
 |       Equation       | Rate | RMS Res | Max Res |  Linear Solution |
 +----------------------+------+---------+---------+------------------+
 | U-Mom                | 0.60 | 1.4E-04 | 2.0E-03 |       1.6E-03  OK|
 | V-Mom                | 0.61 | 1.6E-04 | 2.0E-03 |       1.0E-02  OK|
 | W-Mom                | 0.62 | 8.9E-05 | 1.3E-03 |       1.3E-02  OK|
 | P-Mass               | 0.57 | 3.3E-05 | 6.8E-04 | 42.4  1.2E-01  ok|
 +----------------------+------+---------+---------+------------------+
 | odor                 | 0.66 | 1.3E-04 | 1.7E-03 |  5.4  9.6E-03  OK|
 +----------------------+------+---------+---------+------------------+
 | K-TurbKE             | 0.84 | 6.8E-04 | 1.2E-02 |  5.4  1.4E-03  OK|
 | E-Diss.K             | 0.98 | 7.3E-04 | 1.5E-02 | 10.3  8.0E-04  OK|
 +----------------------+------+---------+---------+------------------+
 ----------------------------------------------------------------------
 COEFFICIENT LOOP ITERATION =    8              CPU SECONDS = 5.829E+01
 ----------------------------------------------------------------------
 |       Equation       | Rate | RMS Res | Max Res |  Linear Solution |
 +----------------------+------+---------+---------+------------------+
 | U-Mom                | 0.60 | 8.4E-05 | 1.2E-03 |       3.2E-03  OK|
 | V-Mom                | 0.60 | 9.4E-05 | 1.3E-03 |       1.7E-02  OK|
 | W-Mom                | 0.59 | 5.2E-05 | 7.7E-04 |       2.6E-02  OK|
 | P-Mass               | 0.61 | 2.0E-05 | 4.1E-04 | 42.4  1.7E-01  ok|
 +----------------------+------+---------+---------+------------------+
 | odor                 | 0.68 | 9.2E-05 | 1.2E-03 |  5.3  7.9E-03  OK|
 +----------------------+------+---------+---------+------------------+
 | K-TurbKE             | 0.99 | 6.7E-04 | 1.9E-02 |  5.4  1.3E-03  OK|
 | E-Diss.K             | 1.21 | 8.8E-04 | 2.7E-02 | 10.3  1.5E-03  OK|
 +----------------------+------+---------+---------+------------------+

 +--------------------------------------------------------------------+
 | Writing transient file 3.trn                                       |
 |   Name   : Transient Results 1                                     |
 |   Type   : Selected Variables                                      |
 |   Option : Every Timestep                                          |
 +--------------------------------------------------------------------+


 ======================================================================
 |                      Timestepping Information                      |
 ----------------------------------------------------------------------
 |       Timestep       |  RMS Courant Number  |  Max Courant Number  |
 +----------------------+----------------------+----------------------+
 |      1.0000E+00      |         16.14        |        357.32        |
 ----------------------------------------------------------------------

 ======================================================================
 TIME STEP =     4 SIMULATION TIME = 4.0000E+00 CPU SECONDS = 6.109E+01
 ----------------------------------------------------------------------
 COEFFICIENT LOOP ITERATION =    1              CPU SECONDS = 6.110E+01
 ----------------------------------------------------------------------
 |       Equation       | Rate | RMS Res | Max Res |  Linear Solution |
 +----------------------+------+---------+---------+------------------+
 | U-Mom                | 0.64 | 2.6E-03 | 1.1E-01 |       1.2E-04  OK|
 | V-Mom                | 0.62 | 2.3E-03 | 7.2E-02 |       1.8E-03  OK|
 | W-Mom                | 0.64 | 1.6E-03 | 4.0E-02 |       7.8E-04  OK|
 | P-Mass               | 0.47 | 4.3E-04 | 2.4E-02 |  4.8  9.5E-03  OK|
 +----------------------+------+---------+---------+------------------+
 | odor                 | 0.74 | 1.6E-02 | 2.4E-01 |  5.3  2.6E-02  OK|
 +----------------------+------+---------+---------+------------------+
 | K-TurbKE             | 0.47 | 1.3E-03 | 2.0E-02 |  5.4  1.1E-05  OK|
 | E-Diss.K             | 0.28 | 7.3E-04 | 2.1E-02 | 10.3  2.4E-05  OK|
 +----------------------+------+---------+---------+------------------+
 ----------------------------------------------------------------------
 COEFFICIENT LOOP ITERATION =    2              CPU SECONDS = 6.215E+01
 ----------------------------------------------------------------------
 |       Equation       | Rate | RMS Res | Max Res |  Linear Solution |
 +----------------------+------+---------+---------+------------------+
 | U-Mom                | 0.59 | 1.5E-03 | 5.7E-02 |       2.0E-04  OK|
 | V-Mom                | 0.64 | 1.5E-03 | 2.7E-02 |       3.4E-03  OK|
 | W-Mom                | 0.52 | 8.4E-04 | 1.9E-02 |       1.7E-03  OK|
 | P-Mass               | 0.51 | 2.2E-04 | 8.9E-03 |  4.8  2.7E-02  OK|
 +----------------------+------+---------+---------+------------------+
 | odor                 | 0.16 | 2.6E-03 | 3.0E-02 |  5.3  8.3E-03  OK|
 +----------------------+------+---------+---------+------------------+
 | K-TurbKE             | 0.73 | 9.4E-04 | 1.0E-02 |  5.4  9.5E-05  OK|
 | E-Diss.K             | 0.79 | 5.8E-04 | 1.2E-02 | 10.3  2.6E-05  OK|
 +----------------------+------+---------+---------+------------------+
 ----------------------------------------------------------------------
 COEFFICIENT LOOP ITERATION =    3              CPU SECONDS = 6.323E+01
 ----------------------------------------------------------------------
 |       Equation       | Rate | RMS Res | Max Res |  Linear Solution |
 +----------------------+------+---------+---------+------------------+
 | U-Mom                | 0.49 | 7.6E-04 | 2.8E-02 |       3.7E-04  OK|
 | V-Mom                | 0.49 | 7.5E-04 | 1.2E-02 |       5.5E-03  OK|
 | W-Mom                | 0.49 | 4.2E-04 | 7.5E-03 |       3.3E-03  OK|
 | P-Mass               | 0.96 | 2.1E-04 | 4.2E-03 |  4.8  4.2E-02  OK|
 +----------------------+------+---------+---------+------------------+
 | odor                 | 0.36 | 9.4E-04 | 9.9E-03 |  5.3  1.7E-03  OK|
 +----------------------+------+---------+---------+------------------+
 | K-TurbKE             | 0.56 | 5.3E-04 | 4.8E-03 |  5.3  1.4E-04  OK|
 | E-Diss.K             | 0.73 | 4.2E-04 | 9.7E-03 | 10.3  2.9E-04  OK|
 +----------------------+------+---------+---------+------------------+
 ----------------------------------------------------------------------
 COEFFICIENT LOOP ITERATION =    4              CPU SECONDS = 6.425E+01
 ----------------------------------------------------------------------
 |       Equation       | Rate | RMS Res | Max Res |  Linear Solution |
 +----------------------+------+---------+---------+------------------+
 | U-Mom                | 0.51 | 3.8E-04 | 1.4E-02 |       6.4E-04  OK|
 | V-Mom                | 0.54 | 4.0E-04 | 4.3E-03 |       8.3E-03  OK|
 | W-Mom                | 0.50 | 2.1E-04 | 2.8E-03 |       6.1E-03  OK|
 | P-Mass               | 0.50 | 1.1E-04 | 2.2E-03 |  4.8  6.1E-02  OK|
 +----------------------+------+---------+---------+------------------+
 | odor                 | 0.54 | 5.0E-04 | 5.4E-03 |  5.3  7.2E-03  OK|
 +----------------------+------+---------+---------+------------------+
 | K-TurbKE             | 0.99 | 5.2E-04 | 4.6E-03 |  5.3  4.5E-04  OK|
 | E-Diss.K             | 0.97 | 4.1E-04 | 5.4E-03 | 10.3  2.4E-04  OK|
 +----------------------+------+---------+---------+------------------+
 ----------------------------------------------------------------------
 COEFFICIENT LOOP ITERATION =    5              CPU SECONDS = 6.533E+01
 ----------------------------------------------------------------------
 |       Equation       | Rate | RMS Res | Max Res |  Linear Solution |
 +----------------------+------+---------+---------+------------------+
 | U-Mom                | 0.58 | 2.2E-04 | 7.0E-03 |       1.1E-03  OK|
 | V-Mom                | 0.58 | 2.3E-04 | 3.3E-03 |       1.2E-02  OK|
 | W-Mom                | 0.64 | 1.3E-04 | 2.1E-03 |       1.1E-02  OK|
 | P-Mass               | 0.60 | 6.4E-05 | 1.4E-03 |  4.8  8.6E-02  OK|
 +----------------------+------+---------+---------+------------------+
 | odor                 | 0.58 | 2.9E-04 | 3.5E-03 |  5.3  3.5E-03  OK|
 +----------------------+------+---------+---------+------------------+
 | K-TurbKE             | 0.85 | 4.4E-04 | 6.6E-03 |  5.3  4.6E-04  OK|
 | E-Diss.K             | 1.08 | 4.4E-04 | 8.2E-03 | 10.3  1.1E-03  OK|
 +----------------------+------+---------+---------+------------------+
 ----------------------------------------------------------------------
 COEFFICIENT LOOP ITERATION =    6              CPU SECONDS = 6.631E+01
 ----------------------------------------------------------------------
 |       Equation       | Rate | RMS Res | Max Res |  Linear Solution |
 +----------------------+------+---------+---------+------------------+
 | U-Mom                | 0.61 | 1.4E-04 | 3.5E-03 |       1.2E-03  OK|
 | V-Mom                | 0.61 | 1.4E-04 | 1.9E-03 |       1.2E-02  OK|
 | W-Mom                | 0.64 | 8.5E-05 | 1.7E-03 |       1.4E-02  OK|
 | P-Mass               | 0.64 | 4.1E-05 | 8.5E-04 |  8.5  9.4E-02  OK|
 +----------------------+------+---------+---------+------------------+
 | odor                 | 0.54 | 1.6E-04 | 2.3E-03 |  5.4  5.4E-03  OK|
 +----------------------+------+---------+---------+------------------+
 | K-TurbKE             | 0.93 | 4.1E-04 | 6.5E-03 |  5.4  1.2E-03  OK|
 | E-Diss.K             | 1.03 | 4.5E-04 | 8.9E-03 | 10.3  1.3E-03  OK|
 +----------------------+------+---------+---------+------------------+
 ----------------------------------------------------------------------
 COEFFICIENT LOOP ITERATION =    7              CPU SECONDS = 6.732E+01
 ----------------------------------------------------------------------
 |       Equation       | Rate | RMS Res | Max Res |  Linear Solution |
 +----------------------+------+---------+---------+------------------+
 | U-Mom                | 0.57 | 7.7E-05 | 1.7E-03 |       1.9E-03  OK|
 | V-Mom                | 0.57 | 8.1E-05 | 1.2E-03 |       1.9E-02  OK|
 | W-Mom                | 0.56 | 4.8E-05 | 1.3E-03 |       2.4E-02  OK|
 | P-Mass               | 0.61 | 2.5E-05 | 5.3E-04 | 34.8  1.3E-01  ok|
 +----------------------+------+---------+---------+------------------+
 | odor                 | 0.56 | 8.7E-05 | 1.2E-03 |  5.3  3.3E-03  OK|
 +----------------------+------+---------+---------+------------------+
 | K-TurbKE             | 0.93 | 3.8E-04 | 7.9E-03 |  5.4  8.4E-04  OK|
 | E-Diss.K             | 1.14 | 5.2E-04 | 1.3E-02 | 10.3  1.7E-03  OK|
 +----------------------+------+---------+---------+------------------+

 +--------------------------------------------------------------------+
 | Writing transient file 4.trn                                       |
 |   Name   : Transient Results 1                                     |
 |   Type   : Selected Variables                                      |
 |   Option : Every Timestep                                          |
 +--------------------------------------------------------------------+


 ======================================================================
 |                      Timestepping Information                      |
 ----------------------------------------------------------------------
 |       Timestep       |  RMS Courant Number  |  Max Courant Number  |
 +----------------------+----------------------+----------------------+
 |      1.0000E+00      |         16.14        |        357.32        |
 ----------------------------------------------------------------------

 ======================================================================
 TIME STEP =     5 SIMULATION TIME = 5.0000E+00 CPU SECONDS = 6.979E+01
 ----------------------------------------------------------------------
 COEFFICIENT LOOP ITERATION =    1              CPU SECONDS = 6.979E+01
 ----------------------------------------------------------------------
 |       Equation       | Rate | RMS Res | Max Res |  Linear Solution |
 +----------------------+------+---------+---------+------------------+
 | U-Mom                | 1.14 | 2.9E-03 | 2.0E-01 |       6.4E-05  OK|
 | V-Mom                | 0.68 | 1.6E-03 | 4.7E-02 |       2.5E-03  OK|
 | W-Mom                | 0.70 | 1.2E-03 | 4.1E-02 |       2.0E-04  OK|
 | P-Mass               | 1.39 | 6.0E-04 | 4.2E-02 |  4.8  4.9E-02  OK|
 +----------------------+------+---------+---------+------------------+
 | odor                 | 0.80 | 1.3E-02 | 2.0E-01 |  5.3  2.8E-02  OK|
 +----------------------+------+---------+---------+------------------+
 | K-TurbKE             | 0.66 | 8.5E-04 | 2.1E-02 |  5.4  1.0E-05  OK|
 | E-Diss.K             | 0.65 | 4.7E-04 | 1.3E-02 | 10.3  5.6E-05  OK|
 +----------------------+------+---------+---------+------------------+
 ----------------------------------------------------------------------
 COEFFICIENT LOOP ITERATION =    2              CPU SECONDS = 7.063E+01
 ----------------------------------------------------------------------
 |       Equation       | Rate | RMS Res | Max Res |  Linear Solution |
 +----------------------+------+---------+---------+------------------+
 | U-Mom                | 0.28 | 8.1E-04 | 1.7E-02 |       1.0E-02  OK|
 | V-Mom                | 0.56 | 9.0E-04 | 2.0E-02 |       5.9E-02  OK|
 | W-Mom                | 0.43 | 5.0E-04 | 1.1E-02 |       2.8E-02  OK|
 | P-Mass               | 0.43 | 2.6E-04 | 1.1E-02 |  4.8  4.6E-02  OK|
 +----------------------+------+---------+---------+------------------+
 | odor                 | 0.16 | 2.0E-03 | 3.1E-02 |  5.3  5.3E-03  OK|
 +----------------------+------+---------+---------+------------------+
 | K-TurbKE             | 0.55 | 4.7E-04 | 8.1E-03 |  5.4  1.2E-05  OK|
 | E-Diss.K             | 1.05 | 4.9E-04 | 1.5E-02 | 10.3  2.8E-04  OK|
 +----------------------+------+---------+---------+------------------+
 ----------------------------------------------------------------------
 COEFFICIENT LOOP ITERATION =    3              CPU SECONDS = 7.146E+01
 ----------------------------------------------------------------------
 |       Equation       | Rate | RMS Res | Max Res |  Linear Solution |
 +----------------------+------+---------+---------+------------------+
 | U-Mom                | 0.35 | 2.9E-04 | 5.9E-03 |       2.5E-02  OK|
 | V-Mom                | 0.35 | 3.2E-04 | 5.8E-03 |       1.2E-01  ok|
 | W-Mom                | 0.36 | 1.8E-04 | 4.5E-03 |       6.6E-02  OK|
 | P-Mass               | 0.58 | 1.5E-04 | 3.2E-03 |  4.8  6.7E-02  OK|
 +----------------------+------+---------+---------+------------------+
 | odor                 | 0.38 | 7.5E-04 | 9.1E-03 |  5.3  3.6E-03  OK|
 +----------------------+------+---------+---------+------------------+
 | K-TurbKE             | 0.90 | 4.2E-04 | 7.8E-03 |  5.3  3.4E-04  OK|
 | E-Diss.K             | 1.03 | 5.1E-04 | 1.4E-02 | 10.3  1.2E-03  OK|
 +----------------------+------+---------+---------+------------------+
 ----------------------------------------------------------------------
 COEFFICIENT LOOP ITERATION =    4              CPU SECONDS = 7.233E+01
 ----------------------------------------------------------------------
 |       Equation       | Rate | RMS Res | Max Res |  Linear Solution |
 +----------------------+------+---------+---------+------------------+
 | U-Mom                | 0.40 | 1.2E-04 | 2.7E-03 |       4.3E-02  OK|
 | V-Mom                | 0.40 | 1.3E-04 | 2.2E-03 |       1.8E-01  ok|
 | W-Mom                | 0.38 | 6.9E-05 | 1.1E-03 |       1.1E-01  ok|
 | P-Mass               | 0.47 | 7.0E-05 | 1.3E-03 |  4.8  9.6E-02  OK|
 +----------------------+------+---------+---------+------------------+
 | odor                 | 0.45 | 3.4E-04 | 4.0E-03 |  5.3  3.6E-03  OK|
 +----------------------+------+---------+---------+------------------+
 | K-TurbKE             | 1.06 | 4.5E-04 | 8.5E-03 |  5.4  2.7E-04  OK|
 | E-Diss.K             | 1.10 | 5.6E-04 | 1.5E-02 | 10.3  1.5E-03  OK|
 +----------------------+------+---------+---------+------------------+
 ----------------------------------------------------------------------
 COEFFICIENT LOOP ITERATION =    5              CPU SECONDS = 7.326E+01
 ----------------------------------------------------------------------
 |       Equation       | Rate | RMS Res | Max Res |  Linear Solution |
 +----------------------+------+---------+---------+------------------+
 | U-Mom                | 0.48 | 5.6E-05 | 1.3E-03 |       3.8E-02  OK|
 | V-Mom                | 0.49 | 6.1E-05 | 8.1E-04 |       1.4E-01  ok|
 | W-Mom                | 0.51 | 3.5E-05 | 6.1E-04 |       1.2E-01  ok|
 | P-Mass               | 0.55 | 3.9E-05 | 6.4E-04 |  8.5  8.5E-02  OK|
 +----------------------+------+---------+---------+------------------+
 | odor                 | 0.47 | 1.6E-04 | 2.8E-03 |  5.3  8.9E-04  OK|
 +----------------------+------+---------+---------+------------------+
 | K-TurbKE             | 0.94 | 4.2E-04 | 8.7E-03 |  5.4  4.2E-04  OK|
 | E-Diss.K             | 1.02 | 5.7E-04 | 1.6E-02 | 10.3  2.3E-03  OK|
 +----------------------+------+---------+---------+------------------+
[...]
 |       Equation       | Rate | RMS Res | Max Res |  Linear Solution |
 +----------------------+------+---------+---------+------------------+
 | U-Mom                | 0.46 | 2.3E-04 | 1.8E-02 |       5.5E-04  OK|
 | V-Mom                | 0.27 | 4.1E-05 | 6.3E-04 |       3.2E-02  OK|
 | W-Mom                | 0.36 | 4.4E-05 | 6.4E-04 |       1.2E-02  OK|
 | P-Mass               | 0.57 | 4.2E-05 | 1.4E-03 |  4.8  8.2E-02  OK|
 +----------------------+------+---------+---------+------------------+
 | odor                 | 0.39 | 2.6E-05 | 4.9E-04 |  5.3  9.1E-04  OK|
 +----------------------+------+---------+---------+------------------+
 | K-TurbKE             | 0.62 | 9.0E-05 | 2.0E-03 |  5.5  6.9E-05  OK|
 | E-Diss.K             | 0.77 | 9.1E-05 | 3.0E-03 | 10.3  7.8E-04  OK|
 +----------------------+------+---------+---------+------------------+
 ----------------------------------------------------------------------
 COEFFICIENT LOOP ITERATION =    4              CPU SECONDS = 1.611E+03
 ----------------------------------------------------------------------
 |       Equation       | Rate | RMS Res | Max Res |  Linear Solution |
 +----------------------+------+---------+---------+------------------+
 | U-Mom                | 0.50 | 1.1E-04 | 8.8E-03 |       6.6E-04  OK|
 | V-Mom                | 0.52 | 2.1E-05 | 2.6E-04 |       3.7E-02  OK|
 | W-Mom                | 0.52 | 2.3E-05 | 3.2E-04 |       1.5E-02  OK|
 | P-Mass               | 0.63 | 2.7E-05 | 8.4E-04 | 12.3  9.7E-02  OK|
 +----------------------+------+---------+---------+------------------+
 | odor                 | 0.60 | 1.6E-05 | 2.8E-04 |  5.3  2.0E-03  OK|
 +----------------------+------+---------+---------+------------------+
 | K-TurbKE             | 0.92 | 8.3E-05 | 1.6E-03 |  5.5  2.5E-04  OK|
 | E-Diss.K             | 0.92 | 8.4E-05 | 1.9E-03 | 10.3  9.4E-04  OK|
 +----------------------+------+---------+---------+------------------+
 ----------------------------------------------------------------------
 COEFFICIENT LOOP ITERATION =    5              CPU SECONDS = 1.612E+03
 ----------------------------------------------------------------------
 |       Equation       | Rate | RMS Res | Max Res |  Linear Solution |
 +----------------------+------+---------+---------+------------------+
 | U-Mom                | 0.51 | 5.8E-05 | 4.4E-03 |       1.2E-03  OK|
 | V-Mom                | 0.73 | 1.6E-05 | 2.0E-04 |       6.3E-02  OK|
 | W-Mom                | 0.71 | 1.6E-05 | 1.9E-04 |       2.9E-02  OK|
 | P-Mass               | 0.64 | 1.7E-05 | 4.9E-04 | 31.1  1.5E-01  ok|
 +----------------------+------+---------+---------+------------------+
 | odor                 | 0.48 | 7.7E-06 | 1.5E-04 |  5.3  1.3E-03  OK|
 +----------------------+------+---------+---------+------------------+
 | K-TurbKE             | 0.88 | 7.4E-05 | 1.6E-03 |  5.4  5.5E-04  OK|
 | E-Diss.K             | 0.93 | 7.8E-05 | 1.9E-03 | 10.3  1.1E-03  OK|
 +----------------------+------+---------+---------+------------------+

 ======================================================================
                      Convergence Warnings Summary
 ======================================================================

 +-------------------------+------------------------------------------+
 |     Equation Class      |      Solve Location       | Number of    |
 |                         |                           | Convergence  |
 |                         |                           | Failures     |
 +-------------------------+------------------------------------------+
 | Momentum and Mass       | DEFAULT                   |       2      |
 | Additional Variables    | DEFAULT                   |       1      |
 +-------------------------+---------------------------+--------------+
                   
 CFD Solver finished: Sun Jun 28 22:24:58 2020
 CFD Solver wall clock seconds: 2.6429E+02

 ======================================================================
              Termination and Interrupt Condition Summary
 ======================================================================
    
 CFD Solver: Run duration reached
   (Maximum simulation time)

 ======================================================================
              Boundary Flow and Total Source Term Summary
 ======================================================================

 +--------------------------------------------------------------------+
 |                         U-Mom-environment                          |
 +--------------------------------------------------------------------+
 Boundary         : room                                    1.3896E-02
 Boundary         : vent                                    5.8226E-03
 Immersed Solid   : person                                 -1.2708E-02
 Neg Accumulation : environment                            -1.8851E-02
                                                           -----------
 Domain Imbalance :                                        -1.1840E-02

 +--------------------------------------------------------------------+
 |                         V-Mom-environment                          |
 +--------------------------------------------------------------------+
 Boundary         : room                                   -3.5767E-03
 Boundary         : vent                                    6.7234E-03
 Immersed Solid   : person                                 -9.6094E-04
 Neg Accumulation : environment                            -1.7826E-03
                                                           -----------
 Domain Imbalance :                                         4.0323E-04

 +--------------------------------------------------------------------+
 |                         W-Mom-environment                          |
 +--------------------------------------------------------------------+
 Boundary         : room                                    2.4778E-03
 Boundary         : vent                                   -3.3616E-03
 Immersed Solid   : person                                  1.3725E-03
 Neg Accumulation : environment                            -5.8254E-05
                                                           -----------
 Domain Imbalance :                                         4.3050E-04

 +--------------------------------------------------------------------+
 |                         P-Mass-environment                         |
 +--------------------------------------------------------------------+
 Boundary         : vent                                    9.1545E-03

 +--------------------------------------------------------------------+
 |                          odor-environment                          |
 +--------------------------------------------------------------------+
 Boundary         : vent                                    7.7253E-03
 Neg Accumulation : environment                            -7.7223E-03
                                                           -----------
 Domain Imbalance :                                         2.9854E-06


 +--------------------------------------------------------------------+
 |                     Normalised Imbalance Summary                   |
 +--------------------------------------------------------------------+
 |       Equation       |      Maximum Flow     |     Imbalance (%)   |
 +--------------------------------------------------------------------+
 | U-Mom-environment    |       1.8851E-02      |      -62.8071       |
 | V-Mom-environment    |       1.8851E-02      |        2.1391       |
 | W-Mom-environment    |       1.8851E-02      |        2.2837       |
 | P-Mass-environment   |       9.1545E-03      |      100.0000       |
 +----------------------+-----------------------+---------------------+
 | odor-environment     |       7.7253E-03      |        0.0386       |
 +----------------------+-----------------------+---------------------+

 ======================================================================
                     Wall Force and Moment Summary
 ======================================================================
                                                                          
 Notes:
 1. Pressure integrals exclude the reference pressure.  To include
    it, set the expert parameter 'include pref in forces = t'.


 +--------------------------------------------------------------------+
 |                      Pressure Force On Walls                       |
 +--------------------------------------------------------------------+
                                    X-Comp.      Y-Comp.      Z-Comp.

 Domain Group: environment

 room                            -1.3727E-02   2.8185E-03  -2.3680E-03
                                  -----------  -----------  -----------
 Domain Group Totals :           -1.3727E-02   2.8185E-03  -2.3680E-03


 +--------------------------------------------------------------------+
 |                       Viscous Force On Walls                       |
 +--------------------------------------------------------------------+
                                    X-Comp.      Y-Comp.      Z-Comp.

 Domain Group: environment

 room                            -1.6894E-04   7.5816E-04  -1.0986E-04
                                  -----------  -----------  -----------
 Domain Group Totals :           -1.6894E-04   7.5816E-04  -1.0986E-04


 +--------------------------------------------------------------------+
 |                      Pressure Moment On Walls                      |
 +--------------------------------------------------------------------+
                                    X-Comp.      Y-Comp.      Z-Comp.

 Domain Group: environment

 room                            -2.9218E-02  -3.2280E-02   1.2613E-02
                                  -----------  -----------  -----------
 Domain Group Totals :           -2.9218E-02  -3.2280E-02   1.2613E-02


 +--------------------------------------------------------------------+
 |                       Viscous Moment On Walls                      |
 +--------------------------------------------------------------------+
                                    X-Comp.      Y-Comp.      Z-Comp.

 Domain Group: environment

 room                             7.5013E-04  -6.4410E-03   1.6048E-03
                                  -----------  -----------  -----------
 Domain Group Totals :            7.5013E-04  -6.4410E-03   1.6048E-03


 +--------------------------------------------------------------------+
 |                   Locations of Maximum Residuals                   |
 +--------------------------------------------------------------------+
 |       Equation       |      Domain Name      |     Node Number     |
 +--------------------------------------------------------------------+
 | U-Mom                | environment           |           5950      |
 | V-Mom                | environment           |           4515      |
 | W-Mom                | environment           |           6281      |
 | P-Mass               | environment           |           6015      |
 +----------------------+-----------------------+---------------------+
 | odor                 | environment           |           4653      |
 +----------------------+-----------------------+---------------------+
 | K-TurbKE             | environment           |            268      |
 | E-Diss.K             | environment           |            276      |
 +----------------------+-----------------------+---------------------+

 +--------------------------------------------------------------------+
 |                     Average Scale Information                      |
 +--------------------------------------------------------------------+

 Domain Name : environment
     Global Length                                         = 6.9520E+00
     Minimum Extent                                        = 3.5000E+00
     Maximum Extent                                        = 1.2000E+01
     Density                                               = 1.1850E+00
     Dynamic Viscosity                                     = 1.8310E-05
     Velocity                                              = 1.6345E-01
     Advection Time                                        = 4.2533E+01
     RMS Courant Number                                    = 1.6196E+01
     Maximum Courant Number                                = 3.5732E+02
     Reynolds Number                                       = 7.3542E+04

 Domain Name : person
     Global Length                                         = 7.9402E-01
     Minimum Extent                                        = 6.0000E-01
     Maximum Extent                                        = 1.8000E+00

 +--------------------------------------------------------------------+
 |                     Variable Range Information                     |
 +--------------------------------------------------------------------+

 Domain Name : environment
 +--------------------------------------------------------------------+
 |      Variable Name                         |    min    |    max    |
 +--------------------------------------------------------------------+
 | odor.Specific                              | -3.50E-03 |  8.44E-01 |
 | Density                                    |  1.18E+00 |  1.18E+00 |
 | Dynamic Viscosity                          |  1.83E-05 |  1.83E-05 |
 | Velocity u                                 | -1.43E-01 |  6.31E-01 |
 | Velocity v                                 | -4.36E-02 |  7.29E-01 |
 | Velocity w                                 | -3.66E-01 |  5.22E-02 |
 | Pressure                                   | -1.50E-02 |  8.85E-02 |
 | Turbulence Kinetic Energy                  |  3.34E-07 |  7.45E-03 |
 | Turbulence Eddy Dissipation                |  1.43E-10 |  4.21E-02 |
 | Eddy Viscosity                             |  6.21E-06 |  4.95E-04 |
 +--------------------------------------------------------------------+

 +--------------------------------------------------------------------+
 |           CPU Requirements of Numerical Solution - Total           |
 +--------------------------------------------------------------------+

 Subsystem Name                  Discretization       Linear Solution
                                (secs.   %total)     (secs.   %total) 
 ----------------------------------------------------------------------
 Momentum and Mass              4.24E+02  26.3 %     1.32E+02   8.2 %
 Additional Variables           1.09E+02   6.8 %     5.93E+01   3.7 %
 TurbKE and Diss.K              1.47E+02   9.1 %     1.25E+02   7.7 %
                                -------- -------     --------  ------
 Subsystem Summary              6.81E+02  42.1 %     3.17E+02  19.6 %

 File Reading                   1.66E-01    0.0 %
 Search Calculations            2.10E-02    0.0 %
 Variable Updates               2.33E+02   14.4 %
 File Writing                   5.27E+01    3.3 %
 Miscellaneous                  3.33E+02   20.6 %
                                --------
 Total                          1.62E+03

 +--------------------------------------------------------------------+
 |                   Job Information at End of Run                    |
 +--------------------------------------------------------------------+

 Job finished:   Sun Jun 28 22:24:58 2020

 Total wall clock time: 2.691E+02 seconds
             or: (          0:         0:         4:    29.071 )
                 (       Days:     Hours:   Minutes:   Seconds )



 --> Final synchronization point reached by all partitions.
End of solution stage.

 +--------------------------------------------------------------------+
 | The following transient and backup files written by the ANSYS CFX  |
 | solver have been saved in the directory                            |
 | D:/workplace/projects/Ansys/Smoke/Smoke_in_room_pending/dp0_CFX_1- |
 | _Solution_1/smoke_2_001:                                           |
 |                                                                    |
 | 99.trn, 98.trn, 97.trn, 96.trn, 95.trn, 94.trn, 93.trn, 92.trn,    |
 | 91.trn, 90.trn, 9.trn, 89.trn, 88.trn, 87.trn, 86.trn, 85.trn,     |
 | 84.trn, 83.trn, 82.trn, 81.trn, 80.trn, 8.trn, 79.trn, 78.trn,     |
 | 77.trn, 76.trn, 75.trn, 74.trn, 73.trn, 72.trn, 71.trn, 70.trn,    |
 | 7.trn, 69.trn, 68.trn, 67.trn, 66.trn, 65.trn, 64.trn, 63.trn,     |
 | 62.trn, 61.trn, 60.trn, 6.trn, 59.trn, 58.trn, 57.trn, 56.trn,     |
 | 55.trn, 54.trn, 53.trn, 52.trn, 51.trn, 50.trn, 5.trn, 49.trn,     |
 | 48.trn, 47.trn, 46.trn, 45.trn, 44.trn, 43.trn, 42.trn, 41.trn,    |
 | 40.trn, 4.trn, 39.trn, 38.trn, 37.trn, 36.trn, 35.trn, 34.trn,     |
 | 33.trn, 32.trn, 31.trn, 30.trn, 3.trn, 299.trn, 298.trn, 297.trn,  |
 | 296.trn, 295.trn, 294.trn, 293.trn, 292.trn, 291.trn, 290.trn,     |
 | 29.trn, 289.trn, 288.trn, 287.trn, 286.trn, 285.trn, 284.trn,      |
 | 283.trn, 282.trn, 281.trn, 280.trn, 28.trn, 279.trn, 278.trn,      |
 | 277.trn, 276.trn, 275.trn, 274.trn, 273.trn, 272.trn, 271.trn,     |
 | 270.trn, 27.trn, 269.trn, 268.trn, 267.trn, 266.trn, 265.trn,      |
 | 264.trn, 263.trn, 262.trn, 261.trn, 260.trn, 26.trn, 259.trn,      |
 | 258.trn, 257.trn, 256.trn, 255.trn, 254.trn, 253.trn, 252.trn,     |
 | 251.trn, 250.trn, 25.trn, 249.trn, 248.trn, 247.trn, 246.trn,      |
 | 245.trn, 244.trn, 243.trn, 242.trn, 241.trn, 240.trn, 24.trn,      |
 | 239.trn, 238.trn, 237.trn, 236.trn, 235.trn, 234.trn, 233.trn,     |
 | 232.trn, 231.trn, 230.trn, 23.trn, 229.trn, 228.trn, 227.trn,      |
 | 226.trn, 225.trn, 224.trn, 223.trn, 222.trn, 221.trn, 220.trn,     |
 | 22.trn, 219.trn, 218.trn, 217.trn, 216.trn, 215.trn, 214.trn,      |
 | 213.trn, 212.trn, 211.trn, 210.trn, 21.trn, 209.trn, 208.trn,      |
 | 207.trn, 206.trn, 205.trn, 204.trn, 203.trn, 202.trn, 201.trn,     |
 | 200.trn, 20.trn, 2.trn, 199.trn, 198.trn, 197.trn, 196.trn,        |
 | 195.trn, 194.trn, 193.trn, 192.trn, 191.trn, 190.trn, 19.trn,      |
 | 189.trn, 188.trn, 187.trn, 186.trn, 185.trn, 184.trn, 183.trn,     |
 | 182.trn, 181.trn, 180.trn, 18.trn, 179.trn, 178.trn, 177.trn,      |
 | 176.trn, 175.trn, 174.trn, 173.trn, 172.trn, 171.trn, 170.trn,     |
 | 17.trn, 169.trn, 168.trn, 167.trn, 166.trn, 165.trn, 164.trn,      |
 | 163.trn, 162.trn, 161.trn, 160.trn, 16.trn, 159.trn, 158.trn,      |
 | 157.trn, 156.trn, 155.trn, 154.trn, 153.trn, 152.trn, 151.trn,     |
 | 150.trn, 15.trn, 149.trn, 148.trn, 147.trn, 146.trn, 145.trn,      |
 | 144.trn, 143.trn, 142.trn, 141.trn, 140.trn, 14.trn, 139.trn,      |
 | 138.trn, 137.trn, 136.trn, 135.trn, 134.trn, 133.trn, 132.trn,     |
 | 131.trn, 130.trn, 13.trn, 129.trn, 128.trn, 127.trn, 126.trn,      |
 | 125.trn, 124.trn, 123.trn, 122.trn, 121.trn, 120.trn, 12.trn,      |
 | 119.trn, 118.trn, 117.trn, 116.trn, 115.trn, 114.trn, 113.trn,     |
 | 112.trn, 111.trn, 110.trn, 11.trn, 109.trn, 108.trn, 107.trn,      |
 | 106.trn, 105.trn, 104.trn, 103.trn, 102.trn, 101.trn, 100.trn,     |
 | 10.trn, 1.trn, 0.trn                                               |
 +--------------------------------------------------------------------+


 +--------------------------------------------------------------------+
 | The results from this run of the ANSYS CFX Solver have been        |
 | written to                                                         |
 | D:/workplace/projects/Ansys/Smoke/Smoke_in_room_pending/dp0_CFX_1- |
 | _Solution_1/smoke_2_001.res                                        |
 +--------------------------------------------------------------------+


 +--------------------------------------------------------------------+
 | For CFX runs launched from Workbench, the final locations of       |
 | directories and files generated may differ from those shown.       |
 +--------------------------------------------------------------------+


This run of the ANSYS CFX Solver has finished.
